/*---------------------------------------------------------------------------*\
  =========                 |
  \\      /  F ield         | OpenFOAM: The Open Source CFD Toolbox
   \\    /   O peration     | Website:  https://openfoam.org
    \\  /    A nd           | Version:  11
     \\/     M anipulation  |
\*---------------------------------------------------------------------------*/
Build  : 11-d5b4d966c3c5
Exec   : checkMesh
Date   : Apr 24 2024
Time   : 14:52:45
Host   : "vatsal_dell"
PID    : 330
I/O    : uncollated
Case   : /mnt/c/users/pripe/onedrive/desktop/BackNew
nProcs : 1
sigFpe : Enabling floating point exception trapping (FOAM_SIGFPE).
fileModificationChecking : Monitoring run-time modified files using timeStampMaster (fileModificationSkew 10)
allowSystemOperations : Allowing user-supplied system call operations

// * * * * * * * * * * * * * * * * * * * * * * * * * * * * * * * * * * * * * //
Create time

Create polyMesh for time = 0

Time = 0s

Mesh stats
    points:           332362
    internal points:  0
    faces:            658180
    internal faces:   325820
    cells:            164000
    faces per cell:   6
    boundary patches: 4
    point zones:      0
    face zones:       0
    cell zones:       0

Overall number of cells of each type:
    hexahedra:     164000
    prisms:        0
    wedges:        0
    pyramids:      0
    tet wedges:    0
    tetrahedra:    0
    polyhedra:     0

Checking topology...
    Boundary definition OK.
    Cell to face addressing OK.
    Point usage OK.
    Upper triangular ordering OK.
    Face vertices OK.
    Number of regions: 1 (OK).

Checking patch topology for multiply connected surfaces...
    Patch               Faces    Points   Surface topology
    walls               4240     8484     ok (non-closed singly connected)
    inlet               40       82       ok (non-closed singly connected)
    outlet              80       162      ok (non-closed singly connected)
    frontAndBack        328000   332362   ok (non-closed singly connected)

Checking geometry...
    Overall domain bounding box (0 0 0) (0.93 0.03 0.05)
    Mesh has 2 geometric (non-empty/wedge) directions (1 1 0)
    Mesh has 2 solution (non-empty) directions (1 1 0)
    All edges aligned with or perpendicular to non-empty directions.
    Boundary openness (2.59201e-18 -6.58547e-15 1.17213e-13) OK.
    Max cell openness = 1.56858e-16 OK.
    Max aspect ratio = 4.8 OK.
    Minimum face area = 1.40625e-07. Maximum face area = 9e-05.  Face area magnitudes OK.
    Min volume = 7.03125e-09. Max volume = 3.375e-08.  Total volume = 0.00126.  Cell volumes OK.
    Mesh non-orthogonality Max: 0 average: 0
    Non-orthogonality check OK.
    Face pyramids OK.
    Max skewness = 2.36848e-12 OK.
    Coupled point location match (average 0) OK.

Mesh OK.

